>>> text_indentation = __import__('5-text_indentation').text_indentation
>>> text_indentation("Hello?")
    Hello?
    <BLANKLINE>

::

    >>> text_indentation("   Hi there.")
    Hi there.
    <BLANKLINE>

::

    >>> text_indentation("Hello.   ")
    Hello.
    <BLANKLINE>

::

    >>> text_indentation("    Woah now.    This is messy.   ")
    Woah now.
    <BLANKLINE>
    This is messy.
    <BLANKLINE>

::

    >>> text_indentation("Let's print a new-line! Here goes:\nPrinted.")
    Let's print a new-line! Here goes:
    <BLANKLINE>
    <BLANKLINE>
    Printed.
    <BLANKLINE>

::

    >>> text_indentation("\n\n\n three new lines.")
    <BLANKLINE>
    <BLANKLINE>
    <BLANKLINE>
    three new lines.
    <BLANKLINE>

::

    >>> text_indentation("A \n new line.")
    A
    new line.
    <BLANKLINE>

::
     >>> text_indentation(7)
    Traceback (most recent call last):
    TypeError: text must be a string

::

    >>> text_indentation(None)
    Traceback (most recent call last):
    TypeError: text must be a string
